   47
 
 C     1.992100     5.017100    -2.052800
 H     2.030400     3.985500    -1.704100
 H     2.400900     5.583100    -1.200100
 H     2.738100     5.169700    -2.832100
 C     0.533600     5.619700    -2.335800
 H     0.895900     6.646200    -2.326900
 H     0.222700     5.545300    -1.295000
 C    -0.942200     5.309400    -3.631200
 H    -1.275400     4.276900    -3.653600
 H    -0.621200     5.444700    -4.656100
 C    -2.450000     5.889300    -3.913200
 H    -2.525400     6.973700    -3.996500
 H    -3.174100     5.576200    -3.160400
 C    -2.990000     5.326200    -5.251300
 H    -2.976300     4.230500    -5.227900
 H    -2.345300     5.646200    -6.077900
 C    -4.410400     5.798500    -5.524500
 H    -4.456200     6.890500    -5.583600
 H    -4.768400     5.391400    -6.475300
 H    -5.092600     5.467500    -4.735100
 C    -1.556100     6.587500    -1.539500
 H    -1.197100     6.898900    -0.545600
 H    -2.615300     6.882000    -1.514900
 N    -0.848300     7.660600    -2.509200
 H    -1.422000     8.503800    -2.529100
 C    -1.618600     4.756800    -1.379400
 H    -1.627700     4.610400    -0.287900
 H    -2.615600     4.427700    -1.694700
 C    -0.491100     3.479500    -1.951300
 H     0.183600     3.286400    -1.106300
 H    -1.123800     2.579700    -1.990800
 C     0.506700     3.349300    -3.460400
 H     1.342400     2.684300    -3.197500
 H    -0.098900     2.714200    -4.129300
 C     1.178200     6.392400    -4.541800
 H     1.246500     6.656800    -5.607600
 H     2.137500     6.720100    -4.118800
 C    -0.058100     7.547500    -3.906900
 H    -0.775600     7.688900    -4.724700
 H     0.514300     8.486900    -3.911700
 C     1.199900     4.583400    -4.564800
 H     2.259400     4.311600    -4.680400
 H     0.777700     4.318900    -5.549200
 B    -1.066700    10.397000    -0.802600
 H     0.110900    10.471300    -0.793800
 H    -1.720200    11.376300    -0.722200
 H    -1.590800     9.343600    -0.891900
