61
frame 0 xyzgerte 
C  -0.015584 1.820156 -1.865698 
C  -0.202373 0.427373 -2.740583 
C  -0.134354 -1.125328 -2.261350 
C  0.178726 -2.420215 -1.334117 
C  0.396535 -2.406061 0.345305 
C  -0.076470 -1.656877 1.729755 
C  -0.090611 -0.322295 2.699931 
N  -0.058671 1.275621 2.503757 
C  -0.223708 2.244714 1.229240 
C  0.070633 2.103927 -0.388428 
H  1.102421 2.477577 -0.339729 
H  -0.486112 2.907726 -0.892851 
H  0.253747 3.167018 1.591907 
H  -0.540024 1.719734 3.324466 
H  -1.279867 2.528590 1.142407 
H  0.781290 -0.494817 3.350865 
H  -0.936329 -0.508514 3.377666 
H  0.545097 -2.363853 2.301355 
H  -1.076766 -2.104175 1.762337 
H  1.417723 -2.768758 0.524633 
H  -0.153858 -3.312128 0.049299 
H  1.081095 -2.701079 -1.896830 
H  -0.605371 -3.014844 -1.833342 
H  -0.593472 -1.602202 -3.102006 
H  0.922302 -1.060672 -2.416906 
H  -0.398167 0.570807 -3.782693 
H  0.860244 0.401340 -2.863334 
H  1.034747 1.616949 -1.845402 
H  0.059167 2.697877 -2.473084 
C  -6.340701 0.365731 0.163666 
H  -7.126276 0.399933 -0.562007 
H  -6.459666 -0.502627 0.777427 
C  -4.980176 0.303791 -0.555177 
H  -4.861246 1.172110 -1.169000 
H  -4.939385 -0.573443 -1.166483 
H  -3.928577 1.147214 1.117896 
H  -4.007945 -0.625801 1.119937 
C  -2.495926 0.193320 -0.203012 
C  -3.849531 0.254683 0.489251 
H  -2.388926 1.071601 -0.849913 
H  -1.451175 1.036970 1.440576 
H  -1.547747 -0.713276 1.454484 
C  1.705185 0.084050 0.406842 
H  1.992751 -0.597298 1.205923 
H  2.008922 1.020627 0.871179 
C  3.097367 -0.074729 -0.372296 
H  3.322802 -1.066348 -0.763613 
H  3.316713 0.677767 -1.129097 
H  4.114482 1.128521 1.088080 
C  4.206113 0.146431 0.673348 
H  4.111201 -0.580252 1.452976 
C  5.583343 -0.000000 0.000000 
H  5.675319 -0.982380 -0.413968 
H  6.353708 0.154532 0.726333 
H  5.677910 0.726107 -0.780208 
H  -2.462977 -0.694569 -0.844775 
H  -6.381461 1.242923 0.775036 
C  0.099028 0.023661 0.033474 
H  -0.187113 -0.901643 -0.455930 
H  -0.176441 0.760972 -0.734982 
C  -1.334270 0.147897 0.820552 
61
frame 1 xyszdf
C  4.984416 2.525820 0.643452 
C  4.797627 2.587102 -1.000176 
C  4.865646 1.395723 -2.105237 
C  5.178726 -0.054728 -2.763026 
C  5.396535 -1.502073 -1.911057 
C  4.923530 -2.326450 -0.570020 
C  4.909389 -2.499357 1.070850 
N  4.941329 -1.530507 2.356598 
C  4.776292 0.057804 2.558599 
C  5.070633 1.388352 1.627840 
H  6.102421 1.533002 1.975781 
H  4.513888 2.227095 2.071739 
H  5.253747 0.204877 3.538672 
H  4.459976 -2.019205 3.151566 
H  3.720133 0.274942 2.761026 
H  5.781290 -3.149342 1.246909 
H  4.063671 -3.179401 1.248446 
H  5.545097 -3.174959 -0.896479 
H  3.923234 -2.578317 -0.941101 
H  6.417723 -1.838724 -2.135498 
H  4.846142 -1.698758 -2.843738 
H  6.081095 0.292163 -3.287618 
H  4.394629 0.080299 -3.527602 
H  4.406528 1.885315 -2.938550 
H  5.922302 1.562766 -2.127022 
H  4.601833 3.561311 -1.397013 
H  5.860244 2.680390 -1.084096 
H  6.034747 2.406639 0.477618 
H  5.059167 3.490692 1.099888 
C  -6.340701 0.365731 0.163666 
H  -7.126276 0.399933 -0.562007 
H  -6.459666 -0.502627 0.777427 
C  -4.980176 0.303791 -0.555177 
H  -4.861246 1.172110 -1.169000 
H  -4.939385 -0.573443 -1.166483 
H  -3.928577 1.147214 1.117896 
H  -4.007945 -0.625801 1.119937 
C  -2.495926 0.193320 -0.203012 
C  -3.849531 0.254683 0.489251 
H  -2.388926 1.071601 -0.849913 
H  -1.451175 1.036970 1.440576 
H  -1.547747 -0.713276 1.454484 
C  1.705185 0.084050 0.406842 
H  1.992751 -0.597298 1.205923 
H  2.008922 1.020627 0.871179 
C  3.097367 -0.074729 -0.372296 
H  3.322802 -1.066348 -0.763613 
H  3.316713 0.677767 -1.129097 
H  4.114482 1.128521 1.088080 
C  4.206113 0.146431 0.673348 
H  4.111201 -0.580252 1.452976 
C  5.583343 -0.000000 0.000000 
H  5.675319 -0.982380 -0.413968 
H  6.353708 0.154532 0.726333 
H  5.677910 0.726107 -0.780208 
H  -2.462977 -0.694569 -0.844775 
H  -6.381461 1.242923 0.775036 
C  0.099028 0.023661 0.033474 
H  -0.187113 -0.901643 -0.455930 
H  -0.176441 0.760972 -0.734982 
C  -1.334270 0.147897 0.820552 
