   47
FINAL HEAT OF FORMATION =     0.000000
 H    -0.524655     7.741663    -4.504430
 C     0.192845     7.600263    -3.686630
 N    -0.597355     7.713363    -2.288930
 C    -1.305155     6.640263    -1.319230
 C    -1.361240     4.997487    -1.175565
 C     0.422997     3.548983    -3.340536
 C     1.116197     4.783083    -4.444936
 C     1.096408     6.432830    -4.423961
 H     2.055708     6.760530    -4.000961
 H     1.164708     6.697230    -5.489761
 H     0.765245     8.539663    -3.691430
 H    -1.171055     8.556563    -2.308830
 H    -0.946155     6.951663    -0.325330
 H    -2.364355     6.934763    -1.294631
 H    -0.866440     2.820387    -1.786965
 C    -0.233740     3.720187    -1.747465
 H     0.440960     3.527087    -0.902464
 H    -0.230004     2.800916    -3.821699
 H     1.361557     2.991178    -3.207512
 H     0.500310     4.693102    -5.355893
 H     2.083674     4.374230    -4.771444
 H    -2.358240     4.668387    -1.490865
 H    -1.370340     4.851087    -0.084065
 C     1.908397     5.216783    -1.932936
 H     1.946697     4.185183    -1.584236
 H     2.654397     5.369383    -2.712236
 H     2.317197     5.782783    -1.080236
 H     0.812196     6.845883    -2.207036
 C     0.449896     5.819383    -2.215936
 H     0.138996     5.744983    -1.175136
 C    -0.774958     5.561846    -3.291067
 H    -1.108158     4.529346    -3.313467
 H    -0.448763     5.699335    -4.332553
 C    -2.282758     6.141746    -3.573067
 H    -2.358158     7.226146    -3.656367
 H    -3.006858     5.828646    -2.820267
 C    -2.822758     5.578646    -4.911167
 H    -2.178058     5.898646    -5.737767
 H    -2.809058     4.482946    -4.887767
 C    -4.243158     6.050946    -5.184367
 H    -4.601158     5.643845    -6.135167
 H    -4.925358     5.719944    -4.394967
 H    -4.288958     7.142945    -5.243467
 B    -0.815757    10.449763    -0.582330
 H    -1.339857     9.396363    -0.671630
 H     0.361843    10.524063    -0.573530
 H    -1.469257    11.429063    -0.501931
