   61
FINAL HEAT OF FORMATION =     0.000000
 C     1.324531     5.568665    -5.181791
 C     1.088166     3.930285    -5.181052
 C     0.446449     2.967095    -4.038408
 C    -0.093396     2.475681    -2.588721
 C    -0.611361     3.484640    -1.331019
 C    -1.355683     4.914408    -1.009364
 C    -1.348588     6.564359    -1.022016
 N    -0.726781     7.731508    -1.940689
 C    -0.019469     7.753237    -3.386376
 C     0.866456     6.675079    -4.267296
 H     1.841143     6.995917    -3.875351
 H     0.864105     7.025423    -5.310251
 H     0.528473     8.706349    -3.347985
 H    -1.338526     8.580716    -1.856344
 H    -0.788056     7.938319    -4.147044
 H    -0.938232     6.805945    -0.028571
 H    -2.411278     6.824903    -0.912255
 H    -1.295596     4.681320     0.065321
 H    -2.361484     4.582494    -1.292076
 H     0.063339     3.291540    -0.486019
 H    -1.244061     2.584840    -1.370519
 H     0.819232     1.907754    -2.355549
 H    -0.738995     1.707144    -3.047164
 H     0.258124     2.087365    -4.617639
 H     1.429237     2.917865    -3.618165
 H     1.406901     3.427031    -6.069896
 H     2.033132     3.827647    -4.689723
 H     2.142048     5.408866    -4.510203
 H     1.925047     5.911992    -5.998128
 C    -5.363007     5.659055    -6.410384
 H    -5.712967     5.261131    -7.339945
 H    -6.000722     5.327407    -5.617775
 C    -3.925727     5.170417    -6.151425
 H    -3.288028     5.501997    -6.944076
 H    -3.914786     4.101340    -6.108372
 H    -3.467806     6.835225    -4.872708
 H    -4.104207     5.412225    -4.024208
 C    -2.001607     5.270924    -4.540407
 C    -3.422006     5.743225    -4.813608
 H    -1.356906     5.590924    -5.367007
 H    -1.537005     6.918425    -3.285608
 H    -2.185705     5.520925    -2.449508
 C     1.271095     5.511725    -1.845108
 H     0.960195     5.437325    -0.804308
 H     1.633395     6.538225    -1.836208
 C     2.729595     4.909126    -1.562108
 H     2.767896     3.877526    -1.213408
 H     3.475595     5.061726    -2.341408
 H     3.363151     6.736818    -0.627666
 C     3.300837     5.700034    -0.370576
 H     2.659076     5.580746     0.477251
 C     4.706053     5.170432    -0.029267
 H     4.643616     4.133867     0.228674
 H     5.103313     5.720546     0.798054
 H     5.347581     5.288914    -0.877384
 H    -1.987907     4.175224    -4.517007
 H    -5.373962     6.728136    -6.453357
 C     0.046195     5.254125    -2.920308
 H    -0.287005     4.221625    -2.942708
 H     0.372395     5.391625    -3.961808
 C    -1.461605     5.834025    -3.202308
